# generated using pymatgen
data_Ti3O5
_symmetry_space_group_name_H-M   C2/m
_cell_length_a   9.87645200
_cell_length_b   3.84242000
_cell_length_c   9.34792473
_cell_angle_alpha   90.00000000
_cell_angle_beta   91.04801330
_cell_angle_gamma   90.00000000
_symmetry_Int_Tables_number   12
_chemical_formula_structural   Ti3O5
_chemical_formula_sum   'Ti12 O20'
_cell_volume   354.68950894
_cell_formula_units_Z   4
loop_
 _symmetry_equiv_pos_site_id
 _symmetry_equiv_pos_as_xyz
  1  'x, y, z'
  2  '-x, -y, -z'
  3  '-x, y, -z'
  4  'x, -y, z'
  5  'x+1/2, y+1/2, z'
  6  '-x+1/2, -y+1/2, -z'
  7  '-x+1/2, y+1/2, -z'
  8  'x+1/2, -y+1/2, z'
loop_
 _atom_type_symbol
 _atom_type_oxidation_number
  Ti3+  3.0
  Ti4+  4.0
  O2-  -2.0
loop_
 _atom_site_type_symbol
 _atom_site_label
 _atom_site_symmetry_multiplicity
 _atom_site_fract_x
 _atom_site_fract_y
 _atom_site_fract_z
 _atom_site_occupancy
  Ti3+  Ti0  4  0.05447900  0.00000000  0.36088600  1
  Ti3+  Ti1  4  0.12963800  0.00000000  0.04632000  1
  Ti4+  Ti2  4  0.21873000  0.00000000  0.73617500  1
  O2-  O3  4  0.04340700  0.00000000  0.84740600  1
  O2-  O4  4  0.08983800  0.50000000  0.34163700  1
  O2-  O5  4  0.12892300  0.00000000  0.55696900  1
  O2-  O6  4  0.17603600  0.50000000  0.05475100  1
  O2-  O7  4  0.24154400  0.00000000  0.24411100  1
