# generated using pymatgen
data_Ti3O5
_symmetry_space_group_name_H-M   Cmcm
_cell_length_a   3.79649200
_cell_length_b   9.89529000
_cell_length_c   10.07120800
_cell_angle_alpha   90.00000000
_cell_angle_beta   90.00000000
_cell_angle_gamma   90.00000000
_symmetry_Int_Tables_number   63
_chemical_formula_structural   Ti3O5
_chemical_formula_sum   'Ti12 O20'
_cell_volume   378.34899189
_cell_formula_units_Z   4
loop_
 _symmetry_equiv_pos_site_id
 _symmetry_equiv_pos_as_xyz
  1  'x, y, z'
  2  '-x, -y, -z'
  3  '-x, -y, z+1/2'
  4  'x, y, -z+1/2'
  5  'x, -y, -z'
  6  '-x, y, z'
  7  '-x, y, -z+1/2'
  8  'x, -y, z+1/2'
  9  'x+1/2, y+1/2, z'
  10  '-x+1/2, -y+1/2, -z'
  11  '-x+1/2, -y+1/2, z+1/2'
  12  'x+1/2, y+1/2, -z+1/2'
  13  'x+1/2, -y+1/2, -z'
  14  '-x+1/2, y+1/2, z'
  15  '-x+1/2, y+1/2, -z+1/2'
  16  'x+1/2, -y+1/2, z+1/2'
loop_
 _atom_type_symbol
 _atom_type_oxidation_number
  Ti3+  3.0
  Ti4+  4.0
  O2-  -2.0
loop_
 _atom_site_type_symbol
 _atom_site_label
 _atom_site_symmetry_multiplicity
 _atom_site_fract_x
 _atom_site_fract_y
 _atom_site_fract_z
 _atom_site_occupancy
  Ti3+  Ti0  8  0.00000000  0.36939800  0.05727700  1
  Ti4+  Ti1  4  0.00000000  0.30171200  0.75000000  1
  O2-  O2  8  0.00000000  0.18292800  0.56902000  1
  O2-  O3  8  0.00000000  0.44851700  0.62268700  1
  O2-  O4  4  0.00000000  0.26748300  0.25000000  1
