# generated using pymatgen
data_CuO
_symmetry_space_group_name_H-M   C2/c
_cell_length_a   4.24947000
_cell_length_b   4.06086200
_cell_length_c   5.16072093
_cell_angle_alpha   90.00000000
_cell_angle_beta   92.50256168
_cell_angle_gamma   90.00000000
_symmetry_Int_Tables_number   15
_chemical_formula_structural   CuO
_chemical_formula_sum   'Cu4 O4'
_cell_volume   88.97110341
_cell_formula_units_Z   4
loop_
 _symmetry_equiv_pos_site_id
 _symmetry_equiv_pos_as_xyz
  1  'x, y, z'
  2  '-x, -y, -z'
  3  '-x, y, -z+1/2'
  4  'x, -y, z+1/2'
  5  'x+1/2, y+1/2, z'
  6  '-x+1/2, -y+1/2, -z'
  7  '-x+1/2, y+1/2, -z+1/2'
  8  'x+1/2, -y+1/2, z+1/2'
loop_
 _atom_type_symbol
 _atom_type_oxidation_number
  Cu2+  2.0
  O2-  -2.0
loop_
 _atom_site_type_symbol
 _atom_site_label
 _atom_site_symmetry_multiplicity
 _atom_site_fract_x
 _atom_site_fract_y
 _atom_site_fract_z
 _atom_site_occupancy
  Cu2+  Cu0  4  0.25000000  0.25000000  0.00000000  1
  O2-  O1  4  0.00000000  0.48612800  0.25000000  1
