# generated using pymatgen
data_Al5O8
_symmetry_space_group_name_H-M   P6_3mc
_cell_length_a   5.60519215
_cell_length_b   5.60519215
_cell_length_c   8.97169300
_cell_angle_alpha   90.00000000
_cell_angle_beta   90.00000000
_cell_angle_gamma   120.00000000
_symmetry_Int_Tables_number   186
_chemical_formula_structural   Al5O8
_chemical_formula_sum   'Al10 O16'
_cell_volume   244.11026676
_cell_formula_units_Z   2
loop_
 _symmetry_equiv_pos_site_id
 _symmetry_equiv_pos_as_xyz
  1  'x, y, z'
  2  'x-y, x, z+1/2'
  3  '-y, x-y, z'
  4  '-x, -y, z+1/2'
  5  '-x+y, -x, z'
  6  'y, -x+y, z+1/2'
  7  'y, x, z+1/2'
  8  'x, x-y, z'
  9  'x-y, -y, z+1/2'
  10  '-y, -x, z'
  11  '-x, -x+y, z+1/2'
  12  '-x+y, y, z'
loop_
 _atom_site_type_symbol
 _atom_site_label
 _atom_site_symmetry_multiplicity
 _atom_site_fract_x
 _atom_site_fract_y
 _atom_site_fract_z
 _atom_site_occupancy
  Al  Al0  6  0.16160700  0.32321400  0.36913200  1
  Al  Al1  2  0.33333333  0.66666667  0.05706600  1
  Al  Al2  2  0.33333333  0.66666667  0.64824600  1
  O  O3  6  0.02522800  0.51261400  0.49962800  1
  O  O4  6  0.17009550  0.34019100  0.75845500  1
  O  O5  2  0.00000000  0.00000000  0.47103200  1
  O  O6  2  0.33333333  0.66666667  0.26006200  1
