# generated using pymatgen
data_TiO
_symmetry_space_group_name_H-M   P-62m
_cell_length_a   5.01853492
_cell_length_b   5.01853492
_cell_length_c   2.88200000
_cell_angle_alpha   90.00000000
_cell_angle_beta   90.00000000
_cell_angle_gamma   120.00000000
_symmetry_Int_Tables_number   189
_chemical_formula_structural   TiO
_chemical_formula_sum   'Ti3 O3'
_cell_volume   62.86059820
_cell_formula_units_Z   3
loop_
 _symmetry_equiv_pos_site_id
 _symmetry_equiv_pos_as_xyz
  1  'x, y, z'
  2  '-x+y, -x, -z'
  3  '-y, x-y, z'
  4  'x, y, -z'
  5  '-x+y, -x, z'
  6  '-y, x-y, -z'
  7  'y, x, z'
  8  '-x, -x+y, -z'
  9  'x-y, -y, z'
  10  'y, x, -z'
  11  '-x, -x+y, z'
  12  'x-y, -y, -z'
loop_
 _atom_type_symbol
 _atom_type_oxidation_number
  Ti2+  2.0
  O2-  -2.0
loop_
 _atom_site_type_symbol
 _atom_site_label
 _atom_site_symmetry_multiplicity
 _atom_site_fract_x
 _atom_site_fract_y
 _atom_site_fract_z
 _atom_site_occupancy
  Ti2+  Ti0  2  0.33333333  0.66666667  0.50000000  1
  Ti2+  Ti1  1  0.00000000  0.00000000  0.00000000  1
  O2-  O2  3  0.00000000  0.39396800  0.00000000  1
