# generated using pymatgen
data_TiO2
_symmetry_space_group_name_H-M   C2/m
_cell_length_a   12.30715400
_cell_length_b   3.76693600
_cell_length_c   6.61621224
_cell_angle_alpha   90.00000000
_cell_angle_beta   106.94506548
_cell_angle_gamma   90.00000000
_symmetry_Int_Tables_number   12
_chemical_formula_structural   TiO2
_chemical_formula_sum   'Ti8 O16'
_cell_volume   293.41256489
_cell_formula_units_Z   8
loop_
 _symmetry_equiv_pos_site_id
 _symmetry_equiv_pos_as_xyz
  1  'x, y, z'
  2  '-x, -y, -z'
  3  '-x, y, -z'
  4  'x, -y, z'
  5  'x+1/2, y+1/2, z'
  6  '-x+1/2, -y+1/2, -z'
  7  '-x+1/2, y+1/2, -z'
  8  'x+1/2, -y+1/2, z'
loop_
 _atom_type_symbol
 _atom_type_oxidation_number
  Ti4+  4.0
  O2-  -2.0
loop_
 _atom_site_type_symbol
 _atom_site_label
 _atom_site_symmetry_multiplicity
 _atom_site_fract_x
 _atom_site_fract_y
 _atom_site_fract_z
 _atom_site_occupancy
  Ti4+  Ti0  4  0.09992900  0.00000000  0.71039800  1
  Ti4+  Ti1  4  0.19528600  0.00000000  0.28376200  1
  O2-  O2  4  0.05835200  0.00000000  0.36997900  1
  O2-  O3  4  0.13281100  0.00000000  0.00470900  1
  O2-  O4  4  0.13806800  0.50000000  0.70660300  1
  O2-  O5  4  0.23651100  0.50000000  0.34750000  1
